 CRYSTAL
 PRIMVEC
     2.19479990    1.26716831   10.16729991
    -2.19479990    1.26716831   10.16729991
    -0.00000000   -2.53433663   10.16729991
 PRIMCOORD
   5 1
    83   0.00000000    0.00000000   12.21296104
    83  -0.00000000    0.00000000   18.28893868
    52  -0.00000000    2.53433663   20.33459981
    52  -0.00000000    0.00000000   24.11480220
    52   0.00000000    0.00000000    6.38709752
